  
       XFOIL         Version 6.99
  
 Calculated polar for: E205  (10.48%)                                  
  
 1 1 Reynolds number fixed          Mach number fixed         
  
 xtrf =   1.000 (top)        1.000 (bottom)  
 Mach =   0.000     Re =     0.200 e 6     Ncrit =   9.000
  
   alpha    CL        CD       CDp       CM     Top_Xtr  Bot_Xtr
  ------ -------- --------- --------- -------- -------- --------
  -2.000   0.0516   0.01019   0.00403  -0.0509   0.7468   0.5718
   0.000   0.3570   0.01002   0.00361  -0.0658   0.6701   1.0000
   2.000   0.5535   0.01111   0.00413  -0.0606   0.6115   1.0000
   4.000   0.7522   0.01247   0.00544  -0.0557   0.5546   1.0000
   6.000   0.9460   0.01353   0.00682  -0.0496   0.4809   1.0000
   8.000   1.1147   0.01510   0.00864  -0.0396   0.3038   1.0000
  10.000   1.1523   0.02581   0.01793  -0.0157   0.0333   1.0000
  12.000   1.1546   0.04326   0.03600  -0.0022   0.0197   1.0000
