  
       XFOIL         Version 6.99
  
 Calculated polar for: S5010                                           
  
 1 1 Reynolds number fixed          Mach number fixed         
  
 xtrf =   1.000 (top)        1.000 (bottom)  
 Mach =   0.000     Re =     0.200 e 6     Ncrit =   9.000
  
   alpha    CL        CD       CDp       CM     Top_Xtr  Bot_Xtr
  ------ -------- --------- --------- -------- -------- --------
  -2.000  -0.1058   0.01286   0.00487  -0.0045   0.7347   0.1109
   0.000   0.1722   0.00980   0.00384  -0.0132   0.6595   1.0000
   2.000   0.3754   0.01027   0.00354  -0.0085   0.5814   1.0000
   4.000   0.5838   0.01111   0.00411  -0.0050   0.4871   1.0000
   6.000   0.7904   0.01272   0.00557  -0.0021   0.3654   1.0000
   8.000   0.9859   0.01617   0.00898   0.0006   0.2227   1.0000
  10.000   1.1491   0.02243   0.01542   0.0051   0.1111   1.0000
  12.000   1.2151   0.03352   0.02697   0.0133   0.0528   1.0000
