  
       XFOIL         Version 6.99
  
 Calculated polar for: NACA 4412                                       
  
 1 1 Reynolds number fixed          Mach number fixed         
  
 xtrf =   1.000 (top)        1.000 (bottom)  
 Mach =   0.000     Re =     0.250 e 6     Ncrit =   9.000
  
   alpha    CL        CD       CDp       CM     Top_Xtr  Bot_Xtr
  ------ -------- --------- --------- -------- -------- --------
  -2.000   0.2487   0.01134   0.00449  -0.1013   0.8260   0.2306
   0.000   0.4589   0.00901   0.00405  -0.0984   0.7356   0.8897
   2.000   0.6964   0.00980   0.00396  -0.1023   0.5983   1.0000
   4.000   0.8979   0.01131   0.00487  -0.0992   0.4999   1.0000
   6.000   1.0908   0.01297   0.00622  -0.0946   0.4024   1.0000
   8.000   1.1744   0.02114   0.01191  -0.0734   0.0583   1.0000
  10.000   1.2332   0.03131   0.02306  -0.0541   0.0284   1.0000
  12.000   1.3014   0.04322   0.03522  -0.0447   0.0179   1.0000
