  
       XFOIL         Version 6.99
  
 Calculated polar for: E205  (10.48%)                                  
  
 1 1 Reynolds number fixed          Mach number fixed         
  
 xtrf =   1.000 (top)        1.000 (bottom)  
 Mach =   0.000     Re =     0.250 e 6     Ncrit =   9.000
  
   alpha    CL        CD       CDp       CM     Top_Xtr  Bot_Xtr
  ------ -------- --------- --------- -------- -------- --------
  -2.000   0.0668   0.01184   0.00325  -0.0518   0.7110   0.0335
   0.000   0.3480   0.00911   0.00318  -0.0636   0.6360   1.0000
   2.000   0.5475   0.01018   0.00385  -0.0595   0.5803   1.0000
   4.000   0.7472   0.01130   0.00503  -0.0550   0.5278   1.0000
   6.000   0.9282   0.01190   0.00465  -0.0466   0.3379   1.0000
   8.000   1.0479   0.01963   0.01065  -0.0321   0.0103   1.0000
  10.000   1.0932   0.03089   0.02354  -0.0114   0.0108   1.0000
  12.000   1.1518   0.04937   0.04359  -0.0000   0.0154   1.0000
