  
       XFOIL         Version 6.99
  
 Calculated polar for: S5010                                           
  
 1 1 Reynolds number fixed          Mach number fixed         
  
 xtrf =   1.000 (top)        1.000 (bottom)  
 Mach =   0.000     Re =     0.250 e 6     Ncrit =   9.000
  
   alpha    CL        CD       CDp       CM     Top_Xtr  Bot_Xtr
  ------ -------- --------- --------- -------- -------- --------
  -2.000  -0.1089   0.01308   0.00535  -0.0033   0.7035   0.0409
   0.000   0.1625   0.00870   0.00327  -0.0107   0.6321   1.0000
   2.000   0.3698   0.00918   0.00311  -0.0073   0.5548   1.0000
   4.000   0.5795   0.01002   0.00355  -0.0044   0.4604   1.0000
   6.000   0.7889   0.01141   0.00500  -0.0023   0.3439   1.0000
   8.000   0.9824   0.01524   0.00767  -0.0010   0.1322   1.0000
  10.000   1.1398   0.02267   0.01472   0.0024   0.0100   1.0000
  12.000   1.1668   0.03957   0.03314   0.0072   0.0065   1.0000
