  
       XFOIL         Version 6.99
  
 Calculated polar for: S5010                                           
  
 1 1 Reynolds number fixed          Mach number fixed         
  
 xtrf =   1.000 (top)        1.000 (bottom)  
 Mach =   0.000     Re =     0.150 e 6     Ncrit =   9.000
  
   alpha    CL        CD       CDp       CM     Top_Xtr  Bot_Xtr
  ------ -------- --------- --------- -------- -------- --------
  -2.000  -0.1045   0.01239   0.00597  -0.0079   0.7678   0.4980
   0.000   0.1822   0.01153   0.00506  -0.0165   0.6878   1.0000
   2.000   0.3815   0.01217   0.00492  -0.0109   0.6064   1.0000
   4.000   0.5866   0.01303   0.00544  -0.0062   0.5121   1.0000
   6.000   0.7914   0.01457   0.00692  -0.0024   0.3895   1.0000
   8.000   0.9844   0.01813   0.01051   0.0009   0.2437   1.0000
  10.000   1.1425   0.02517   0.01765   0.0061   0.1267   1.0000
  12.000   1.2094   0.03664   0.02969   0.0154   0.0641   1.0000
