  
       XFOIL         Version 6.99
  
 Calculated polar for: E205  (10.48%)                                  
  
 1 1 Reynolds number fixed          Mach number fixed         
  
 xtrf =   1.000 (top)        1.000 (bottom)  
 Mach =   0.000     Re =     0.150 e 6     Ncrit =   9.000
  
   alpha    CL        CD       CDp       CM     Top_Xtr  Bot_Xtr
  ------ -------- --------- --------- -------- -------- --------
  -2.000   0.0645   0.01074   0.00537  -0.0535   0.7858   0.8398
   0.000   0.3602   0.01151   0.00462  -0.0675   0.7023   1.0000
   2.000   0.5546   0.01297   0.00544  -0.0619   0.6400   1.0000
   4.000   0.7508   0.01481   0.00728  -0.0567   0.5808   1.0000
   6.000   0.9435   0.01611   0.00901  -0.0501   0.5048   1.0000
   8.000   1.1167   0.01676   0.01025  -0.0399   0.3598   1.0000
  10.000   1.1489   0.02717   0.01908  -0.0154   0.0585   1.0000
  12.000   1.1521   0.04543   0.03778  -0.0008   0.0263   1.0000
