  
       XFOIL         Version 6.99
  
 Calculated polar for: NACA 4412                                       
  
 1 1 Reynolds number fixed          Mach number fixed         
  
 xtrf =   1.000 (top)        1.000 (bottom)  
 Mach =   0.000     Re =     0.150 e 6     Ncrit =   9.000
  
   alpha    CL        CD       CDp       CM     Top_Xtr  Bot_Xtr
  ------ -------- --------- --------- -------- -------- --------
  -2.000   0.2272   0.01585   0.00828  -0.1055   0.8753   0.3226
   0.000   0.4878   0.01225   0.00611  -0.1079   0.8036   1.0000
   2.000   0.7024   0.01290   0.00590  -0.1042   0.7063   1.0000
   4.000   0.9113   0.01459   0.00724  -0.1006   0.6159   1.0000
   6.000   1.1134   0.01662   0.00918  -0.0959   0.5245   1.0000
   8.000   1.2792   0.01863   0.01139  -0.0849   0.3947   1.0000
  10.000   1.3189   0.02705   0.01881  -0.0581   0.1476   1.0000
  12.000   1.3564   0.04113   0.03277  -0.0409   0.0874   1.0000
